8

C         -1.21150        0.65860        0.00000
N          1.06489        0.53535       -0.00000
O          1.68221       -0.89739        0.00000
H          1.40178        1.01837        0.83283
F          3.26411       -0.58157        0.00000
Cl        -1.95229        2.26080        0.00000
H         -1.55822        0.14731        0.87365
H         -1.50336        0.22822       -0.93514
