 100
 
C     2.3466211   -2.5166960   -3.3293959
C     3.7052701   -2.6666142   -1.3800359
C     3.2612766   -1.2173123    1.9248227
C     4.0146817   -2.2814383    0.0168708
C     1.1754866   -1.9660805   -4.0506018
C    -0.8002292   -0.7802959   -3.8675975
C     4.1682528   -3.8775160   -3.2506290
C     2.1385806   -0.5253032    2.6292489
C     2.1257707    0.8823695    2.7211647
C     1.1168298   -1.2944051    3.2214689
C    -1.8002650   -0.1279448   -2.9687297
C    -1.8126988    1.2759536   -2.8278258
C    -2.7313460   -0.9286302   -2.2764230
C     1.0689949    1.5366081    3.4594119
C    -3.7251601   -0.2987405   -1.4383908
C     0.0634879   -0.6318650    3.9557524
C    -2.8119446    1.8961874   -1.9875787
C     2.6201061   -2.0877675   -2.0328324
C    -3.7410306    1.0939687   -1.3177015
C     0.0685207    0.7629435    4.0563620
C    -0.9914059   -0.8137712   -5.2556516
C     4.4836383   -1.4370572    2.5744117
C    -2.7264743   -2.3534495   -2.3638119
C     3.1185170    1.6966151    2.0966575
C    -0.8532529    2.1169183   -3.4693947
C     1.0799211   -2.7181780    3.1219417
C     5.2535907   -2.5666859    0.5994790
C     1.0471326   -2.0725507   -5.4390486
C    -4.6572080   -1.1193415   -0.7389077
C     1.0762417    2.9598281    3.5598723
C    -2.8168309    3.3167589   -1.8548800
C    -0.9611250   -1.4227527    4.5523067
C     5.4871669   -2.1291245    1.8997424
C    -0.0558144   -1.4787521   -6.0458346
C    -3.6403783   -3.1078466   -1.6712970
C     3.0840243    3.0632202    2.2093752
C    -0.8864055    3.4784934   -3.3071703
C    -4.6179664   -2.4862972   -0.8499683
C     0.0733938   -3.4426875    3.7093173
C     2.0576906    3.7028908    2.9576335
C    -0.9589544   -2.7896220    4.4336548
C    -1.8844161    4.0883659   -2.4975784
N     0.2621444   -1.3444045   -3.2793464
N     3.0329826   -1.6299562    0.6716301
N     4.5005429   -3.5682633   -1.9920887
N     3.1309414   -3.4156349   -3.9586604
H    -1.9735570   -2.8392624   -2.9750180
H     2.0358762   -1.3060486   -1.5672216
H    -0.0795786    1.6583596   -4.0766731
H     3.8972495    1.2159963    1.5134051
H     1.8548677   -3.2244413    2.5563684
H    -3.6077529   -4.1911472   -1.7360244
H    -4.4819584    1.5634634   -0.6753831
H    -0.7232446    1.2591377    4.6145454
H     5.9962546   -3.1117905    0.0274921
H     1.8049553   -2.6040952   -6.0039395
H    -1.8630104   -0.3369947   -5.6931308
H    -5.3267377   -3.1013603   -0.3037087
H     4.6282888   -1.0793695    3.5890937
H     0.2813820    3.4422485    4.1231554
H    -5.3968267   -0.6344806   -0.1067085
H    -1.7511100   -0.9154117    5.1006541
H    -3.5785443    3.7722596   -1.2270868
H     4.8127406   -4.5949124   -3.7551149
H     3.8416063    3.6672992    1.7188062
H     0.0528323   -4.5232754    3.6068530
H    -0.1407765    4.1007349   -3.7934329
H     2.0514777    4.7861017    3.0402635
H    -1.7506825   -3.3797619    4.8854260
H    -1.8966730    5.1689216   -2.3863452
H    -0.1865713   -1.5315994   -7.1229786
H     6.4400590   -2.3235231    2.3837987
C    -0.0187072    2.2707413    0.1322004
C    -0.4007933   -0.0584644    0.2228725
C    -1.1638675    2.0451521    0.9326369
C    -1.4034726    0.5855681    0.9947815
C    -1.7473945    3.1725384    1.5180175
C    -0.1247264    4.6073462    0.4903880
C    -1.3239095   -2.1669072    0.7693822
C    -1.2244277    4.4506485    1.3199277
C     0.5095789    0.9593984   -0.3589202
C    -0.3470740   -1.4361977    0.0984196
C     0.5067992    3.5206995   -0.1163901
C    -2.3189016   -1.5653908    1.5406462
C    -2.3626755   -0.1771608    1.6582284
N    -2.9361561    3.0987321    2.3862914
N     0.4012122    5.9646103    0.2680957
N    -1.3054235   -3.6358961    0.6637094
O    -3.8517831    2.3451796    2.0413240
O    -2.9457965    3.8159243    3.3887638
O     1.3913397    6.0737668   -0.4612761
O    -0.4068349   -4.1529256   -0.0050111
O    -0.1774816    6.9033691    0.8244710
O    -2.1928405   -4.2634661    1.2545218
O     1.4869271    0.8097523   -1.0723397
H    -3.1442013    0.2824298    2.2467912
H    -1.6736268    5.3102049    1.8011707
H    -3.0471717   -2.1927330    2.0367019
H     1.3782985    3.6531546   -0.7455075
H     0.4136428   -1.9312590   -0.4867364
