  36
 
C    -0.4488171    2.3665805   -4.6544687
C     0.4333778   -2.3789163   -4.6469142
C    -0.7917246    3.9457007   -6.0685007
C     0.7866666   -3.9602320   -6.0559302
C    -0.7915911    4.5371499   -4.7810591
C     0.7743565   -4.5501742   -4.7678612
N    -0.5769336    3.4887852   -3.8927405
N     0.5526308   -3.5004778   -3.8828746
N    -0.2162293    1.1365996   -4.0461490
N     0.1977398   -1.1476848   -4.0424055
C    -0.0069054   -0.0062888   -4.7519033
C     1.1701962   -6.6894301   -5.7142314
C    -1.1806924    6.6749532   -5.7335372
C    -1.1835769    6.0993249   -7.0168863
C     1.1847144   -6.1154023   -6.9982147
C     0.9956430   -4.7491407   -7.1892085
C    -0.9916821    4.7329808   -7.2045356
C    -0.9861523    5.9032143   -4.5891788
C     0.9658492   -5.9162071   -4.5726041
N    -0.0024966   -0.0075912   -6.0685751
N    -0.5736206    2.5723997   -5.9542885
N     0.5690957   -2.5866178   -5.9453246
H    -0.1946193    0.9005726   -6.5259354
H     0.1937665   -0.9163433   -6.5228612
H     0.1239780   -1.1213863   -3.0079656
H    -0.1481455    1.1124645   -3.0112686
H    -0.3819862    3.5198035   -2.8723700
H     0.3536032   -3.5294854   -2.8634564
H    -1.3407700    6.7384801   -7.8800928
H     1.3486405   -6.7558037   -7.8592332
H     1.3243264   -7.7589379   -5.6100014
H    -1.3357299    7.7446004   -5.6320230
H     1.0094379   -4.3072917   -8.1801901
H    -0.9964687    4.2898655   -8.1950479
H     0.9656238   -6.3638842   -3.5831368
H    -0.9956242    6.3520069   -3.6002631
