 184
 
O    -4.3713983   -0.0525243   -2.9881937
O    -2.7700358    3.2969813   -3.1081310
O     0.8594789    4.0067373   -3.1270954
O     3.8659901    1.8290944   -3.2617563
O     3.7019339   -1.8761867   -3.0638450
O     0.8988613   -4.3300903   -3.0662901
O    -2.6889712   -3.3462860   -2.9133196
O    -4.2315402    0.0528854    3.1790809
O    -2.5535536    3.3473833    3.0305102
O     1.0382373    4.3294177    3.0227687
O     3.8367590    1.8763683    2.8956068
O     4.0071921   -1.8313543    3.0861323
O     0.9973051   -4.0075313    3.0862756
O    -2.6325764   -3.2958815    3.2291791
N    -5.1671026   -1.1355653   -1.0899333
N    -5.1793218    1.1010138   -1.1347970
N    -4.1257568    3.3017632   -1.2139993
N    -2.3706415    4.6849575   -1.2833704
N     0.0143398    5.1920400   -1.3134170
N     2.1966293    4.6904365   -1.3501685
N     4.1434926    3.2216315   -1.4161850
N     5.1091855    1.2070418   -1.3934575
N     5.0557387   -1.2295870   -1.2875790
N     4.0802280   -3.2451115   -1.2226269
N     2.2054584   -4.8054772   -1.1992328
N     0.0283928   -5.3072699   -1.1409602
N    -2.3384136   -4.7149108   -1.0644035
N    -4.0907562   -3.3225376   -1.0570921
N    -5.1246506   -1.0992302    1.3643264
N    -5.1108060    1.1373869    1.3188168
N    -4.0370777    3.3245701    1.2390365
N    -2.2853502    4.7157663    1.1676427
N     0.0827673    5.3066922    1.1382444
N     2.2605255    4.8061689    1.0997038
N     4.1333418    3.2443037    1.0388206
N     5.1085839    1.2276669    1.0603748
N     5.1651709   -1.2092004    1.1638457
N     4.2005398   -3.2234754    1.2294678
N     2.2525515   -4.6922895    1.2511541
N     0.0699690   -5.1902215    1.3112724
N    -2.3137651   -4.6828712    1.3878636
N    -4.0714637   -3.3013572    1.3975241
C    -5.8403204   -0.7814970    0.1437596
C    -5.8396624    0.7843512    0.1168367
C    -2.9992228   -3.7435552   -1.8022035
C    -1.3032142   -5.5414765   -1.6591777
C    -4.2502345    4.0667500    0.0114518
C    -3.0234091    5.0377006   -0.0394101
C     1.0274087   -4.7567080   -1.9324164
C     3.4783903   -4.4416148   -1.7839031
C     0.5296410    5.8510040   -0.1290415
C     2.0553786    5.5005046   -0.1553970
C     4.2144340   -2.0890404   -1.9779461
C     5.6041082   -0.0447969   -1.9240270
C     4.9101570    3.2324573   -0.1869853
C     5.5895008    1.8218504   -0.1728313
C     4.3131828    2.0560213   -2.1519372
C     5.5904128   -1.8242264   -0.0770199
C     4.9112947   -3.2343365   -0.0329049
C    -5.1164840   -2.4762261   -1.6353322
C    -4.8440798   -0.0303789   -1.8650426
C     2.0568997   -5.5009926    0.0632097
C     0.5313165   -5.8505899    0.1055306
C    -5.1526459    2.4212858   -1.7350366
C    -3.0522415    3.7074527   -1.9958331
C    -3.0216542   -5.0363229    0.1746185
C    -4.2496455   -4.0655278    0.1783531
C    -1.2954343    5.4465861   -1.8827636
C     1.0055972    4.5594303   -2.0504468
C    -5.0733101   -2.4195246    1.9629950
C    -4.7547541    0.0315979    2.0785543
C     3.4712152    4.3765206   -1.9712665
C    -2.9637510   -3.7062248    2.1304750
C    -1.2130442   -5.4446377    1.9387712
C    -5.0355471    2.4777364    1.8622665
C    -2.9129200    3.7448127    1.9343642
C     1.0941902   -4.5598032    2.0038463
C     3.5540206   -4.3786081    1.8140289
C    -1.2241423    5.5416820    1.7155766
C     1.1162061    4.7564120    1.8844341
C     4.4037340   -2.0581145    1.9571669
C     5.6837825    0.0424435    1.6719571
C     3.5583380    4.4415014    1.6262804
C     4.3001580    2.0882704    1.7876776
H    -6.8469322   -1.2203915    0.1683163
H     5.4372351    0.0769923    2.7360281
H     3.4216339    4.2437604    2.6922939
H     4.2566575    5.2760798    1.4790808
H     6.7726006    0.0674800    1.5312923
H     4.2067084   -5.2544416    1.7013818
H    -1.4943072    6.5974001    1.5809093
H    -1.1461133    5.3015289    2.7787524
H     3.4013646   -4.1517804    2.8720151
H    -1.4399599   -6.5159714    1.8575235
H    -6.0177737    2.9596035    1.7685200
H    -4.7591734    2.3779883    2.9147236
H    -1.1209419   -5.1537490    2.9879650
H     3.2707595    4.1492330   -3.0211602
H    -4.8158337   -2.2812652    3.0159566
H    -6.0599563   -2.8919386    1.8691209
H     4.1284124    5.2523406   -1.8887420
H    -5.2192921   -4.5811979    0.1896735
H    -1.5183922    6.5179131   -1.7915148
H    -3.3000179   -6.0987534    0.1893536
H    -1.2503819    5.1556363   -2.9350182
H     0.3281920   -6.9286024    0.1615348
H    -6.1335669    2.8950286   -1.5978970
H     2.7111639   -6.3829473    0.0929528
H    -4.9418325    2.2828052   -2.7982806
H     5.6257423   -4.0680011   -0.0625994
H    -6.0933817   -2.9580693   -1.4969121
H     6.6868435   -1.8653876   -0.1276524
H    -4.8879322   -2.3771677   -2.6992369
H     6.6871136    1.8621961   -0.1708383
H     5.3108718   -0.0791528   -2.9761874
H     5.6258203    4.0655893   -0.1896644
H     6.6980330   -0.0705248   -1.8314436
H     2.7081513    6.3819781   -0.2156051
H     4.1820805   -5.2767052   -1.6688759
H     0.3249151    6.9291960   -0.1748117
H     3.2936026   -4.2433598   -2.8425625
H    -3.3022648    6.1000960   -0.0411934
H    -1.2726499   -5.3014246   -2.7248017
H    -5.2194888    4.5823502    0.0424493
H    -1.5677576   -6.5970051   -1.5124813
H    -6.8456593    1.2248483    0.1377277
C     0.0163389   -1.4468553   -0.2292178
C    -1.2302974    0.7137687   -0.2605637
C     0.0291536    1.4467138    0.2283649
C     1.2732825   -0.7105606    0.2669812
C     1.2609670    0.7084868   -0.3246688
C    -1.2183461   -0.7118901    0.3165312
C     0.0692047    0.0686589    2.3171711
C    -0.0364918   -0.0687913   -2.3177406
C     1.2231103    0.6735200   -1.8623952
C    -1.1941574   -0.6578140    1.8504103
C     0.0092289   -1.4962680   -1.7657452
C     0.0919948    1.4960891    1.7636355
C    -1.2762512    0.6594178   -1.7939434
C     1.3058137   -0.6751875    1.8047806
C    -1.4639608   -0.5285401   -4.3838054
C     1.1111132    1.0957713    4.4093302
C     0.9055570   -1.0998516   -4.4546493
C    -1.2611148    0.5330428    4.4464417
C     0.2140939    1.2376815   -4.4950028
C     0.4138661   -1.2391159    4.4807572
N     0.0838562    0.1144472    3.9005852
N    -0.0939622   -0.1147030   -3.9001596
H     0.0208725   -2.4761177    0.1500996
H     0.0181197    2.4760344   -0.1507051
H     2.1678062    1.2408826   -0.0144913
H    -2.1288423   -1.2374364    0.0013265
H    -2.1246749    1.2408524    0.0956250
H     2.1641512   -1.2446008   -0.0840891
H    -0.8420646   -2.0831025   -2.1216800
H     1.0195563    1.9921947    2.0577778
H    -1.3241964    1.6717603   -2.2025721
H     1.3224646   -1.7007936    2.1797284
H     2.1180781    0.1744313   -2.2441988
H    -2.0869395   -0.1340734    2.1970346
H    -1.2246749   -1.6701165    2.2605021
H     1.2234225    1.6992354   -2.2373604
H    -0.7412632    2.0843343    2.1578102
H     0.9215948   -1.9939580   -2.1017923
H     2.2178976   -0.1767829    2.1448274
H    -2.1847781    0.1369122   -2.0991138
H    -1.7716616   -1.4424217   -3.8773438
H     0.7930958    2.1097258    4.1726696
H    -0.4248097    1.9918617   -4.0395723
H     1.4538580   -1.4795934    4.2685754
H     1.8908140   -0.8922918   -4.0426826
H    -1.9822877   -0.2659760    4.2887026
H     2.0760361    0.8841577    3.9538017
H    -2.1741600    0.2732104   -4.1936263
H    -1.5882793    1.4483600    3.9551359
H     0.5943585   -2.1126290   -4.2042534
H    -0.2479940   -1.9908723    4.0551277
H     1.2635980    1.4743573   -4.3306414
H    -1.3803152   -0.7085560   -5.4566258
H     1.1697391    0.9632677    5.4907558
H     0.9163732   -0.9671355   -5.5375609
H    -1.1278341    0.7118980    5.5144502
H     0.0066609    1.1704981   -5.5640119
H     0.2558462   -1.1712606    5.5581548
